417
Lattice="21.8788 0.0 0.0 0.0 21.9332 0.0 0.0 0.0 21.87100000000001" Properties=species:S:1:pos:R:3 pbc="T T T"
O       14.56980000      13.49820000      17.79200000
H       15.56280000      13.61520000      17.77500000
H       14.25580000      13.18520000      16.89600000
O        6.84950000      15.49420000      14.95600000
H        7.34280000      14.69420000      15.29800000
H        7.04740000      15.61720000      13.98400000
O       11.70180000      13.50820000      16.76100000
H       12.36180000      13.85220000      17.42800000
H       12.18080000      12.98220000      16.05900000
O        5.58540000      14.67920000       6.21030000
H        5.20150000      13.78720000       5.97190000
H        6.51020000      14.75420000       5.83720000
O        7.21400000       3.13880000       5.23160000
H        7.16530000       4.12420000       5.06810000
H        6.29420000       2.78230000       5.39570000
O        3.61610000      11.42820000      14.25000000
H        3.71530000      12.29920000      14.73200000
H        3.84390000      11.55420000      13.28400000
O       10.61780000      15.10820000       2.84350000
H       11.22480000      14.67520000       3.50990000
H       10.32340000      15.99820000       3.18990000
O       14.22380000      13.23720000       6.72850000
H       15.13080000      13.25620000       7.15080000
H       13.67980000      12.50520000       7.13940000
O       12.05680000       7.27240000       4.11290000
H       11.17780000       7.48410000       4.54080000
H       12.09480000       6.29740000       3.89410000
O        8.43570000      13.29220000      11.87900000
H        8.69040000      13.31320000      10.91180000
H        7.73560000      12.59220000      12.02300000
O       13.87780000      10.44320000      17.82900000
H       14.03280000      10.04150000      16.92700000
H       13.84380000      11.43920000      17.75000000
O       11.66080000      15.12520000      10.09370000
H       12.04480000      14.53520000      10.80350000
H       12.39080000      15.67120000       9.68270000
O        7.33540000      13.08320000      18.23300000
H        7.41600000      12.86420000      19.20500000
H        6.98320000      12.28820000      17.73900000
O       16.22680000       7.26910000      16.09000000
H       15.31080000       7.66870000      16.06000000
H       16.89180000       7.93280000      15.74700000
O        3.25600000       6.77020000      16.47200000
H        2.41590000       6.69340000      15.93500000
H        3.52650000       7.73110000      16.53200000
O       15.84080000       2.55100000      11.62100000
H       15.22880000       1.76900000      11.73900000
H       16.32880000       2.46330000      10.75240000
O       11.20680000      10.44420000       6.95450000
H       12.05280000      10.58020000       7.46920000
H       10.45050000      10.89320000       7.43080000
O       10.37580000      11.11020000      12.29500000
H        9.89100000      10.25200000      12.12600000
H        9.71340000      11.83620000      12.47700000
O        9.36580000       8.78740000       8.82110000
H       10.34390000       8.92210000       8.97970000
H        8.98360000       9.60170000       8.38430000
O       11.30880000      10.43920000      14.79900000
H       11.21980000      10.90320000      13.91800000
H       10.66680000       9.67380000      14.83900000
O        8.63210000       8.79210000      11.50100000
H        7.73460000       9.15380000      11.75300000
H        8.75580000       8.86740000      10.51110000
O        9.80330000      17.37120000      13.96200000
H       10.09520000      17.08520000      14.87500000
H       10.36010000      18.14620000      13.66200000
O       11.88280000       2.71480000       5.66010000
H       11.38980000       3.19290000       4.93260000
H       11.23780000       2.17040000       6.19660000
O        8.07280000      19.45820000       8.65400000
H        8.53290000      19.61920000       9.52710000
H        7.68070000      18.53820000       8.64840000
O        6.93530000       9.44330000      14.72600000
H        6.59440000       9.66040000      15.64100000
H        7.89970000       9.18500000      14.78300000
O        9.27410000      14.62320000      19.77300000
H        9.96490000      15.28520000      19.48100000
H        8.36320000      14.97720000      19.56100000
O        2.79840000       9.24480000      10.89320000
H        2.81900000       8.76750000      11.77200000
H        2.68720000       8.57950000      10.15490000
O        7.30250000      11.91620000       6.30960000
H        6.32700000      11.90020000       6.09060000
H        7.81790000      12.23220000       5.51330000
O       14.55380000       3.89670000      17.55100000
H       14.38180000       3.19940000      18.24700000
H       15.27280000       4.51450000      17.86900000
O        4.37410000       6.06660000       4.96020000
H        4.07290000       5.12390000       4.81620000
H        4.86760000       6.13000000       5.82760000
O       16.15080000      17.33920000      13.28800000
H       15.35780000      17.04120000      13.82100000
H       16.07280000      18.31620000      13.09400000
O        5.00960000       3.33810000       8.16740000
H        5.24700000       4.12170000       7.59330000
H        4.67980000       3.66230000       9.05410000
O       17.43480000      13.32120000       7.32930000
H       16.95880000      12.54820000       7.74780000
H       17.75180000      13.06320000       6.41690000
O        7.41750000       5.91430000      13.82200000
H        6.71910000       6.52540000      13.44900000
H        8.30350000       6.13190000      13.41200000
O        7.77080000       6.18200000       5.34190000
H        7.64920000       6.08830000       4.35380000
H        8.57710000       6.74400000       5.52670000
O       14.53080000       6.08510000      11.67400000
H       15.21780000       6.04670000      12.39900000
H       13.71380000       6.55150000      12.01300000
O       17.14880000      10.30920000      14.91400000
H       16.39080000      10.37920000      14.26600000
H       17.95580000      10.76220000      14.53300000
O        7.63040000       6.03450000       2.62750000
H        8.19430000       6.49670000       1.94320000
H        7.69020000       5.04500000       2.49560000
O       10.93880000       4.91420000       3.07930000
H       11.10180000       5.07410000       2.10570000
H       10.33750000       4.12300000       3.19100000
O        9.02500000      13.91920000      15.91800000
H       10.01070000      13.98520000      16.07200000
H        8.58480000      13.54020000      16.73200000
O       12.55480000      14.28920000       5.06150000
H       13.14180000      14.15220000       5.85980000
H       12.62780000      13.49720000       4.45470000
O        2.03790000      13.53820000      10.13960000
H        2.08750000      14.53220000      10.04510000
H        1.08120000      13.24820000      10.11370000
O        9.10980000      11.54020000       8.31160000
H        9.25070000      12.41520000       8.77400000
H        8.48170000      11.66620000       7.54380000
O       10.26790000       4.56310000      16.59700000
H        9.27090000       4.48960000      16.57400000
H       10.60380000       4.26340000      17.49000000
O       15.32580000      13.18220000      12.99200000
H       14.71880000      13.92520000      12.71100000
H       16.15880000      13.56420000      13.39100000
O       15.28880000       5.71090000       9.10170000
H       14.50880000       5.34100000       8.59810000
H       15.05780000       5.78000000      10.07200000
O       14.45980000       8.70310000      11.04750000
H       13.57680000       8.93010000      10.63670000
H       14.68980000       7.75250000      10.83910000
O       19.30480000      10.69820000       8.33120000
H       18.38980000      10.40320000       8.60510000
H       19.78080000       9.93880000       7.88680000
O        9.72840000       6.71730000      12.78600000
H        9.40500000       7.48180000      12.22900000
H       10.20570000       6.05890000      12.20400000
O        4.83410000      15.13620000       9.09020000
H        3.83620000      15.08120000       9.05570000
H        5.21410000      14.85420000       8.20910000
O       18.10580000       5.95250000       9.84020000
H       17.18880000       5.55440000       9.82330000
H       18.26880000       6.37650000      10.73100000
O        4.97010000      15.58920000      11.76400000
H        4.95860000      15.29620000      10.80760000
H        5.91530000      15.73120000      12.05800000
O       16.60180000       5.86890000      13.54100000
H       16.32380000       6.45740000      14.30000000
H       17.42880000       5.36640000      13.79500000
O       13.45280000      11.11720000       8.54060000
H       14.39880000      10.93720000       8.27270000
H       13.42980000      11.44120000       9.48640000
O       17.43580000       9.95910000      17.49100000
H       16.79780000      10.58520000      17.93900000
H       17.37980000      10.07910000      16.49900000
O       18.15080000      13.65120000      13.73100000
H       18.02280000      14.38620000      14.39800000
H       18.49580000      14.03520000      12.87500000
O        6.78900000      11.26520000      12.76100000
H        6.71060000      10.69720000      13.58000000
H        5.87540000      11.51220000      12.43800000
O       18.38780000       7.25930000      12.17600000
H       19.02780000       7.77230000      12.74800000
H       17.61980000       6.94540000      12.73500000
O        3.20080000       7.23080000       8.89200000
H        4.19070000       7.36800000       8.92900000
H        3.00490000       6.28360000       8.63810000
O        5.83990000       7.44420000      10.02880000
H        5.70660000       7.65220000      10.99780000
H        6.14970000       8.26630000       9.55110000
O       11.46580000       8.89380000       1.40510000
H       12.32580000       8.58220000       1.00000000
H       11.35680000       8.48380000       2.31060000
O        9.42660000       8.49770000      14.98000000
H        9.51160000       7.73820000      14.33500000
H        9.61660000       8.17160000      15.90600000
O       15.13980000      10.31020000      13.01500000
H       14.98080000      11.28620000      12.86500000
H       14.76780000       9.79010000      12.24700000
O       12.58880000      17.15120000      12.20100000
H       12.76180000      16.97020000      11.23300000
H       12.07680000      18.00420000      12.29500000
O       12.99080000      14.33520000      12.41100000
H       12.31880000      13.94020000      13.03700000
H       12.77080000      15.29620000      12.24800000
O       20.00580000      11.80120000      10.62320000
H       19.88380000      11.54220000       9.66490000
H       20.87880000      12.27520000      10.73250000
O        7.35980000       4.21940000      11.63100000
H        8.07000000       4.76190000      11.18200000
H        7.54420000       4.17560000      12.61300000
O       18.66280000      14.20220000      10.80440000
H       19.14680000      13.33920000      10.94590000
H       18.67780000      14.43720000       9.83250000
O        5.68050000       7.97580000      12.86000000
H        4.73310000       7.69880000      13.02000000
H        5.93910000       8.67840000      13.52300000
O        9.79290000       3.42940000      13.88400000
H        9.89310000       4.09220000      14.62600000
H       10.66580000       3.32860000      13.40700000
O       13.95680000       4.03900000       7.15180000
H       13.10280000       3.63630000       6.82170000
H       14.31480000       4.67090000       6.46450000
O       14.42880000       8.50400000       4.55520000
H       13.56880000       8.00790000       4.43470000
H       14.53280000       9.17380000       3.82000000
O       10.28720000      11.89320000      19.80900000
H        9.85810000      12.79220000      19.71300000
H       11.28080000      12.00020000      19.84000000
O       16.21580000      10.88120000       8.11390000
H       16.37880000      10.19230000       7.40760000
H       16.16080000      10.43520000       9.00750000
O        9.27000000      14.02720000       9.30730000
H        8.95890000      14.50920000       8.48840000
H       10.16030000      14.38620000       9.58740000
O        4.13670000      15.81420000      15.57700000
H        3.88380000      16.78220000      15.58800000
H        5.13030000      15.72920000      15.65000000
O       15.09080000       5.51370000       5.15110000
H       15.11380000       5.19840000       4.20240000
H       14.64880000       6.40930000       5.19450000
O       10.71180000      18.57220000       6.26580000
H       11.63280000      18.46420000       6.64060000
H       10.25080000      19.33020000       6.72640000
O        8.15260000       1.26330000      13.49500000
H        7.44990000       1.32970000      12.78700000
H        8.65580000       2.12590000      13.54700000
O        6.49510000      10.34420000      17.54900000
H        6.45860000       9.99490000      18.48500000
H        7.44920000      10.46720000      17.27600000
O        7.72650000       5.19950000      16.47900000
H        7.52040000       5.42740000      15.52700000
H        6.87430000       5.13370000      16.99800000
O        8.52210000      10.01360000       3.38620000
H        8.58690000       9.47830000       2.54400000
H        7.99390000      10.84520000       3.21290000
O        6.52600000      17.40720000       9.43280000
H        6.79120000      17.47020000      10.39500000
H        5.96040000      16.59420000       9.29510000
O       13.79280000      16.79520000      14.66600000
H       13.45780000      16.93720000      13.73500000
H       13.01980000      16.78020000      15.30000000
O        3.34190000       5.28560000      12.48700000
H        3.47270000       4.54180000      13.14200000
H        3.78200000       5.04800000      11.62100000
O       10.35640000       1.76350000      11.08600000
H       11.00680000       2.49580000      11.28700000
H        9.46650000       2.16050000      10.86180000
O       16.61380000       8.92900000       6.29900000
H       17.08980000       8.05400000       6.21140000
H       16.30880000       9.23410000       5.39690000
O        9.10900000      20.00220000      11.12400000
H        8.78950000      19.90220000      12.06600000
H        9.44660000      20.93320000      10.98320000
O        9.08360000       9.57150000      20.63300000
H        9.76820000       8.84310000      20.60600000
H        9.49390000      10.42620000      20.31400000
O       10.02980000      15.55820000       6.75350000
H       10.95680000      15.18620000       6.71460000
H       10.07370000      16.55420000       6.83530000
O       13.62680000      16.69320000       9.46710000
H       13.50680000      17.36220000       8.73330000
H       14.48080000      16.88020000       9.95190000
O       10.68680000      12.14520000       3.95730000
H        9.99040000      11.57320000       3.52270000
H       10.45840000      12.27120000       4.92270000
O        2.69310000       7.91750000      13.24000000
H        1.87880000       8.06660000      13.80100000
H        2.82830000       6.93620000      13.10300000
O       12.72180000       4.62470000       9.81020000
H       13.08880000       3.80950000       9.36230000
H       12.99780000       4.62980000      10.77130000
O       12.47080000       2.99220000      12.72400000
H       13.19980000       3.45290000      13.23100000
H       12.84580000       2.19380000      12.25300000
O        3.75150000      10.23250000       4.10560000
H        3.14720000       9.56660000       4.54290000
H        4.49130000       9.75230000       3.63440000
O        8.17570000      19.59820000      13.49400000
H        8.64110000      18.84120000      13.95200000
H        8.02590000      20.34120000      14.14700000
O       11.75680000      17.20320000      16.51900000
H       11.76780000      16.70920000      17.38800000
H       11.43280000      18.13720000      16.67000000
O        8.45610000       3.91170000       8.76760000
H        7.48360000       3.73750000       8.61250000
H        8.79340000       4.55420000       8.07960000
O        9.33340000      11.01420000      17.26000000
H        9.95990000      11.45320000      17.90300000
H        9.85900000      10.50620000      16.57700000
O        7.17560000      12.27220000       2.54490000
H        7.29340000      12.31520000       1.55280000
H        6.63180000      13.05420000       2.85000000
O        5.00560000       4.92620000      10.43650000
H        5.85570000       4.57710000      10.83070000
H        5.02540000       5.92600000      10.43360000
O       13.04780000      12.48920000      20.40400000
H       13.71580000      11.90920000      20.87100000
H       13.52480000      13.11320000      19.78400000
O       14.01580000       7.86510000       7.48480000
H       14.44680000       8.41030000       6.76550000
H       14.70380000       7.28500000       7.92050000
O        8.22480000      14.03020000       4.77960000
H        8.44000000      14.95320000       5.09890000
H        8.68580000      13.86220000       3.90820000
O        5.27860000       5.61470000      17.79300000
H        5.29330000       6.05520000      18.69100000
H        4.56670000       6.03240000      17.22800000
O       11.30180000      19.47520000      13.04100000
H       11.09180000      20.24920000      13.63700000
H       10.76580000      19.54720000      12.20000000
O       19.23580000      11.22320000      13.40900000
H       19.17580000      11.23320000      12.41100000
H       18.93980000      12.10820000      13.76900000
O       14.94480000      10.70120000       2.85630000
H       14.17580000      11.31820000       2.68770000
H       15.80080000      11.21520000       2.81060000
O        4.03180000       9.17330000      16.44900000
H        3.75320000       9.68950000      15.63900000
H        4.64510000       9.73300000      17.00600000
O        3.06230000      11.72920000       7.96890000
H        2.59410000      12.02520000       8.80120000
H        2.91630000      10.74820000       7.83600000
O        6.19210000      10.27180000       9.30840000
H        7.10220000      10.68520000       9.33190000
H        5.54470000      10.91320000       8.89750000
O        1.90990000       9.04530000       7.52820000
H        2.35000000       8.27870000       7.99570000
H        1.00000000       9.19390000       7.91540000
O       14.33480000       4.06400000      14.85700000
H       14.42680000       3.96940000      15.84800000
H       15.23780000       4.00980000      14.43100000
O       16.27580000      16.17020000      10.92450000
H       16.26580000      16.73320000      11.75100000
H       17.20880000      15.85520000      10.74810000
O       10.06750000       4.87520000      10.82500000
H        9.47680000       4.50560000      10.10780000
H       11.01680000       4.87190000      10.50970000
O        4.28570000      11.75720000      11.65500000
H        3.84710000      12.44920000      11.08200000
H        3.93650000      10.85220000      11.41000000
O        3.07720000      14.63120000      13.46200000
H        3.39660000      14.97320000      14.34600000
H        3.73160000      14.88620000      12.75000000
O       12.92180000      11.82620000      11.02750000
H       13.23680000      12.64520000      11.50700000
H       12.11780000      11.45520000      11.49300000
O        9.69060000       6.25530000       7.66510000
H        9.59910000       7.21680000       7.92420000
H       10.65880000       6.00440000       7.65110000
O        6.39810000       1.30640000      11.06800000
H        6.23730000       2.15200000      10.55920000
H        5.79820000       1.27940000      11.86800000
O       10.95680000       1.16740000       8.31680000
H       10.29130000       1.00000000       9.04420000
H       11.83080000       1.43730000       8.72040000
O       14.10580000       9.31370000      15.47500000
H       14.74380000       9.45940000      14.71800000
H       13.16680000       9.37770000      15.13600000
O       10.04440000       8.51230000       5.31960000
H        9.53010000       9.03970000       4.64340000
H       10.57980000       9.13450000       5.89030000
O        7.67350000      16.16420000      12.34700000
H        8.36430000      16.67820000      12.85500000
H        8.04940000      15.27720000      12.07700000
O       13.69480000      12.25620000      15.59800000
H       14.14280000      12.49120000      14.73600000
H       13.23980000      11.37020000      15.50700000
O       12.41980000       6.23500000      15.62800000
H       13.04880000       5.46240000      15.54100000
H       11.51280000       5.89940000      15.88100000
O       13.53080000      18.08920000       6.79700000
H       13.43580000      18.30520000       5.82540000
H       14.49280000      18.15920000       7.06100000
O       16.90280000       9.61710000      10.45850000
H       16.03280000       9.20570000      10.72940000
H       17.60180000       9.39520000      11.13800000
O       12.30580000       8.00120000      17.94900000
H       12.63880000       7.44140000      17.19100000
H       12.70180000       8.91720000      17.88700000
O        5.71600000       6.11520000       7.23470000
H        6.53560000       6.09620000       6.66210000
H        5.97560000       6.30190000       8.18220000
O       12.39780000       7.72190000      13.17300000
H       11.42180000       7.67260000      12.96100000
H       12.55280000       7.40860000      14.11000000
O       12.22680000       8.59130000       9.38240000
H       12.46580000       9.50900000       9.06500000
H       12.78580000       7.91610000       8.90070000
O       10.54650000      13.54720000      13.37000000
H       10.20250000      13.37920000      14.29400000
H        9.77830000      13.72820000      12.75600000
O        3.09560000      13.38420000      16.55100000
H        3.15890000      13.18520000      17.52900000
H        3.71000000      14.14020000      16.32400000
O        4.67780000      12.24820000       5.77510000
H        4.18820000      11.64420000       5.14570000
H        4.15560000      12.33920000       6.62300000
O        7.22410000      17.52020000      16.95300000
H        7.01090000      16.88620000      16.21000000
H        6.92930000      17.12620000      17.82400000
O       12.80480000      12.49420000       2.28600000
H       12.78780000      13.07220000       1.46980000
H       11.87080000      12.35420000       2.61490000
O        9.27230000       7.54050000      17.60700000
H        9.87200000       7.69830000      18.39200000
H        8.72170000       6.72130000      17.76800000
